[General]
network = Network
sim-time-limit = 200s

Network.nodeTx.gen.generationInterval=exponential(0.1)
Network.nodeTx.gen.packetByteSize = 12500

Network.queueMid.bufferSize = 200
Network.queueBack.bufferSize = 200

Network.nodeTx.traTx.delayOutput=exponential(0.1)
Network.nodeTx.traTx.bufferSize = 2000000
Network.nodeRx.traRx.bufferSize = 200